<?xml version="1.0" encoding="UTF-8"?>

<!-- generated on 2024-03-28 17:56:37 by Eclipse SUMO netedit Version 1.19.0
<configuration xmlns:xsi="http://www.w3.org/2001/XMLSchema-instance" xsi:noNamespaceSchemaLocation="http://sumo.dlr.de/xsd/neteditConfiguration.xsd">

    <input>
        <sumo-net-file value="/home/matteo/Scrivania/Thesis/Codice/SMARTS_aim/scenarios/sumo/4agents_nohd/map.net.xml"/>
    </input>

    <output>
        <output-file value="/home/matteo/Scrivania/Thesis/Codice/SMARTS_aim/scenarios/sumo/4agents_nohd/map.net.xml"/>
    </output>

    <processing>
        <geometry.min-radius.fix.railways value="false"/>
        <geometry.max-grade.fix value="false"/>
        <offset.disable-normalization value="true"/>
        <lefthand value="0"/>
    </processing>

    <junctions>
        <no-turnarounds value="true"/>
        <junctions.corner-detail value="5"/>
        <junctions.limit-turn-speed value="-1.00"/>
        <rectangular-lane-cut value="0"/>
    </junctions>

    <pedestrian>
        <walkingareas value="0"/>
    </pedestrian>

</configuration>
-->

<net version="1.16" junctionCornerDetail="5" xmlns:xsi="http://www.w3.org/2001/XMLSchema-instance" xsi:noNamespaceSchemaLocation="http://sumo.dlr.de/xsd/net_file.xsd">

    <location netOffset="0.00,0.00" convBoundary="61.46,60.98,138.22,137.16" origBoundary="-10000000000.00,-10000000000.00,10000000000.00,10000000000.00" projParameter="!"/>

    <edge id=":junction-intersection_0" function="internal">
        <lane id=":junction-intersection_0_0" index="0" speed="13.89" length="9.06" shape="107.20,101.60 104.75,101.95 102.99,103.01 101.93,104.76 101.57,107.22"/>
    </edge>
    <edge id=":junction-intersection_1" function="internal">
        <lane id=":junction-intersection_1_0" index="0" speed="13.89" length="14.41" shape="107.20,101.60 92.79,101.60"/>
    </edge>
    <edge id=":junction-intersection_2" function="internal">
        <lane id=":junction-intersection_2_0" index="0" speed="13.89" length="4.07" shape="107.20,101.60 103.35,101.05 103.20,100.96"/>
    </edge>
    <edge id=":junction-intersection_12" function="internal">
        <lane id=":junction-intersection_12_0" index="0" speed="13.89" length="10.13" shape="103.20,100.96 100.60,99.40 98.95,96.65 98.40,92.80"/>
    </edge>
    <edge id=":junction-intersection_3" function="internal">
        <lane id=":junction-intersection_3_0" index="0" speed="13.89" length="9.03" shape="101.60,92.80 101.95,95.25 103.00,97.00 104.75,98.05 107.20,98.40"/>
    </edge>
    <edge id=":junction-intersection_4" function="internal">
        <lane id=":junction-intersection_4_0" index="0" speed="13.89" length="14.42" shape="101.60,92.80 101.57,107.22"/>
    </edge>
    <edge id=":junction-intersection_5" function="internal">
        <lane id=":junction-intersection_5_0" index="0" speed="13.89" length="14.20" shape="101.60,92.80 101.05,96.65 99.40,99.40 96.64,101.05 92.79,101.60"/>
    </edge>
    <edge id=":junction-intersection_6" function="internal">
        <lane id=":junction-intersection_6_0" index="0" speed="13.89" length="9.04" shape="92.79,98.40 95.24,98.05 97.00,97.00 98.05,95.25 98.40,92.80"/>
    </edge>
    <edge id=":junction-intersection_7" function="internal">
        <lane id=":junction-intersection_7_0" index="0" speed="13.89" length="14.41" shape="92.79,98.40 107.20,98.40"/>
    </edge>
    <edge id=":junction-intersection_8" function="internal">
        <lane id=":junction-intersection_8_0" index="0" speed="13.89" length="4.07" shape="92.79,98.40 96.64,98.95 96.79,99.04"/>
    </edge>
    <edge id=":junction-intersection_13" function="internal">
        <lane id=":junction-intersection_13_0" index="0" speed="13.89" length="10.14" shape="96.79,99.04 99.39,100.61 101.03,103.36 101.57,107.22"/>
    </edge>
    <edge id=":junction-intersection_9" function="internal">
        <lane id=":junction-intersection_9_0" index="0" speed="13.89" length="9.03" shape="98.37,107.21 98.03,104.75 96.99,103.00 95.24,101.95 92.79,101.60"/>
    </edge>
    <edge id=":junction-intersection_10" function="internal">
        <lane id=":junction-intersection_10_0" index="0" speed="13.89" length="14.41" shape="98.37,107.21 98.40,92.80"/>
    </edge>
    <edge id=":junction-intersection_11" function="internal">
        <lane id=":junction-intersection_11_0" index="0" speed="13.89" length="14.21" shape="98.37,107.21 98.94,103.35 100.60,100.60 103.35,98.95 107.20,98.40"/>
    </edge>

    <edge id="edge-east-EW" from="junction-east" to="junction-intersection" priority="-1">
        <lane id="edge-east-EW_0" index="0" speed="13.89" length="31.02" shape="138.22,101.60 107.20,101.60"/>
    </edge>
    <edge id="edge-east-WE" from="junction-intersection" to="junction-east" priority="-1">
        <lane id="edge-east-WE_0" index="0" speed="13.89" length="31.02" shape="107.20,98.40 138.22,98.40"/>
    </edge>
    <edge id="edge-north-NS" from="junction_north" to="junction-intersection" priority="-1" length="39.00">
        <lane id="edge-north-NS_0" index="0" speed="13.89" length="39.00" shape="98.24,137.15 98.37,107.21"/>
    </edge>
    <edge id="edge-north-SN" from="junction-intersection" to="junction_north" priority="-1" length="39.00">
        <lane id="edge-north-SN_0" index="0" speed="13.89" length="39.00" shape="101.57,107.22 101.44,137.17"/>
    </edge>
    <edge id="edge-south-NS" from="junction-intersection" to="junction-south" priority="-1">
        <lane id="edge-south-NS_0" index="0" speed="13.89" length="31.82" shape="98.40,92.80 98.40,60.98"/>
    </edge>
    <edge id="edge-south-SN" from="junction-south" to="junction-intersection" priority="-1">
        <lane id="edge-south-SN_0" index="0" speed="13.89" length="31.82" shape="101.60,60.98 101.60,92.80"/>
    </edge>
    <edge id="edge-west-EW" from="junction-intersection" to="junction-west" priority="-1">
        <lane id="edge-west-EW_0" index="0" speed="13.89" length="31.33" shape="92.79,101.60 61.46,101.60"/>
    </edge>
    <edge id="edge-west-WE" from="junction-west" to="junction-intersection" priority="-1">
        <lane id="edge-west-WE_0" index="0" speed="13.89" length="31.33" shape="61.46,98.40 92.79,98.40"/>
    </edge>

    <junction id="junction-east" type="dead_end" x="138.22" y="100.00" incLanes="edge-east-WE_0" intLanes="" shape="138.22,100.00 138.22,96.80 138.22,100.00"/>
    <junction id="junction-intersection" type="priority" x="100.00" y="100.00" incLanes="edge-east-EW_0 edge-south-SN_0 edge-west-WE_0 edge-north-NS_0" intLanes=":junction-intersection_0_0 :junction-intersection_1_0 :junction-intersection_12_0 :junction-intersection_3_0 :junction-intersection_4_0 :junction-intersection_5_0 :junction-intersection_6_0 :junction-intersection_7_0 :junction-intersection_13_0 :junction-intersection_9_0 :junction-intersection_10_0 :junction-intersection_11_0" shape="107.20,103.20 107.20,96.80 104.98,96.36 104.20,95.80 103.64,95.02 103.31,94.02 103.20,92.80 96.80,92.80 96.35,95.02 95.80,95.80 95.02,96.36 94.01,96.69 92.79,96.80 92.79,103.20 95.01,103.64 95.78,104.20 96.33,104.98 96.66,105.98 96.77,107.20 103.17,107.23 103.62,104.99 104.19,104.21 104.97,103.65 105.97,103.31">
        <request index="0"  response="000000000000" foes="000100010000" cont="0"/>
        <request index="1"  response="000000000000" foes="111100110000" cont="0"/>
        <request index="2"  response="000111000000" foes="110111110000" cont="1"/>
        <request index="3"  response="000010000000" foes="100010000000" cont="0"/>
        <request index="4"  response="000110000111" foes="100110000111" cont="0"/>
        <request index="5"  response="011110000110" foes="111110000110" cont="0"/>
        <request index="6"  response="000000000000" foes="010000000100" cont="0"/>
        <request index="7"  response="000000000000" foes="110000111100" cont="0"/>
        <request index="8"  response="000000000011" foes="110000110111" cont="1"/>
        <request index="9"  response="000000000010" foes="000000100010" cont="0"/>
        <request index="10" response="000111000110" foes="000111100110" cont="0"/>
        <request index="11" response="000110111110" foes="000110111110" cont="0"/>
    </junction>
    <junction id="junction-south" type="dead_end" x="100.00" y="60.98" incLanes="edge-south-NS_0" intLanes="" shape="100.00,60.98 96.80,60.98 100.00,60.98"/>
    <junction id="junction-west" type="dead_end" x="61.46" y="100.00" incLanes="edge-west-EW_0" intLanes="" shape="61.46,100.00 61.46,103.20 61.46,100.00"/>
    <junction id="junction_north" type="dead_end" x="99.84" y="137.16" incLanes="edge-north-SN_0" intLanes="" shape="99.84,137.16 103.04,137.17 99.84,137.16"/>

    <junction id=":junction-intersection_12_0" type="internal" x="103.20" y="100.96" incLanes=":junction-intersection_2_0 edge-west-WE_0" intLanes=":junction-intersection_4_0 :junction-intersection_5_0 :junction-intersection_6_0 :junction-intersection_7_0 :junction-intersection_10_0 :junction-intersection_11_0"/>
    <junction id=":junction-intersection_13_0" type="internal" x="96.79" y="99.04" incLanes=":junction-intersection_8_0 edge-east-EW_0" intLanes=":junction-intersection_0_0 :junction-intersection_1_0 :junction-intersection_4_0 :junction-intersection_5_0 :junction-intersection_10_0 :junction-intersection_11_0"/>

    <connection from="edge-east-EW" to="edge-north-SN" fromLane="0" toLane="0" via=":junction-intersection_0_0" dir="r" state="M"/>
    <connection from="edge-east-EW" to="edge-west-EW" fromLane="0" toLane="0" via=":junction-intersection_1_0" dir="s" state="M"/>
    <connection from="edge-east-EW" to="edge-south-NS" fromLane="0" toLane="0" via=":junction-intersection_2_0" dir="l" state="m"/>
    <connection from="edge-north-NS" to="edge-west-EW" fromLane="0" toLane="0" via=":junction-intersection_9_0" dir="r" state="m"/>
    <connection from="edge-north-NS" to="edge-south-NS" fromLane="0" toLane="0" via=":junction-intersection_10_0" dir="s" state="m"/>
    <connection from="edge-north-NS" to="edge-east-WE" fromLane="0" toLane="0" via=":junction-intersection_11_0" dir="l" state="m"/>
    <connection from="edge-south-SN" to="edge-east-WE" fromLane="0" toLane="0" via=":junction-intersection_3_0" dir="r" state="m"/>
    <connection from="edge-south-SN" to="edge-north-SN" fromLane="0" toLane="0" via=":junction-intersection_4_0" dir="s" state="m"/>
    <connection from="edge-south-SN" to="edge-west-EW" fromLane="0" toLane="0" via=":junction-intersection_5_0" dir="l" state="m"/>
    <connection from="edge-west-WE" to="edge-south-NS" fromLane="0" toLane="0" via=":junction-intersection_6_0" dir="r" state="M"/>
    <connection from="edge-west-WE" to="edge-east-WE" fromLane="0" toLane="0" via=":junction-intersection_7_0" dir="s" state="M"/>
    <connection from="edge-west-WE" to="edge-north-SN" fromLane="0" toLane="0" via=":junction-intersection_8_0" dir="l" state="m"/>

    <connection from=":junction-intersection_0" to="edge-north-SN" fromLane="0" toLane="0" dir="r" state="M"/>
    <connection from=":junction-intersection_1" to="edge-west-EW" fromLane="0" toLane="0" dir="s" state="M"/>
    <connection from=":junction-intersection_2" to="edge-south-NS" fromLane="0" toLane="0" via=":junction-intersection_12_0" dir="l" state="m"/>
    <connection from=":junction-intersection_12" to="edge-south-NS" fromLane="0" toLane="0" dir="l" state="M"/>
    <connection from=":junction-intersection_3" to="edge-east-WE" fromLane="0" toLane="0" dir="r" state="M"/>
    <connection from=":junction-intersection_4" to="edge-north-SN" fromLane="0" toLane="0" dir="s" state="M"/>
    <connection from=":junction-intersection_5" to="edge-west-EW" fromLane="0" toLane="0" dir="l" state="M"/>
    <connection from=":junction-intersection_6" to="edge-south-NS" fromLane="0" toLane="0" dir="r" state="M"/>
    <connection from=":junction-intersection_7" to="edge-east-WE" fromLane="0" toLane="0" dir="s" state="M"/>
    <connection from=":junction-intersection_8" to="edge-north-SN" fromLane="0" toLane="0" via=":junction-intersection_13_0" dir="l" state="m"/>
    <connection from=":junction-intersection_13" to="edge-north-SN" fromLane="0" toLane="0" dir="l" state="M"/>
    <connection from=":junction-intersection_9" to="edge-west-EW" fromLane="0" toLane="0" dir="r" state="M"/>
    <connection from=":junction-intersection_10" to="edge-south-NS" fromLane="0" toLane="0" dir="s" state="M"/>
    <connection from=":junction-intersection_11" to="edge-east-WE" fromLane="0" toLane="0" dir="l" state="M"/>

</net>
